/*--------------------------------*- C++ -*----------------------------------*\
| =========                 |                                                 |
| \\      /  F ield         | OpenFOAM: The Open Source CFD Toolbox           |
|  \\    /   O peration     | Version:  v1812                                 |
|   \\  /    A nd           | Web:      www.OpenFOAM.com                      |
|    \\/     M anipulation  |                                                 |
\*---------------------------------------------------------------------------*/
FoamFile
{
    version     2.0;
    format      ascii;
    class       volScalarField;
    location    "0";
    object      omega;
}
// * * * * * * * * * * * * * * * * * * * * * * * * * * * * * * * * * * * * * //

dimensions      [0 0 -1 0 0 0 0];


internalField   uniform 0.003;

boundaryField
{
    inlet
    {
        type            fixedValue;
        value           uniform 0.003;
    }
    walls
    {
        type            omegaWallFunction;
        value           uniform 0.003;
    }
    outlet
    {
        type            inletOutlet;
        inletValue      uniform 0.003;
        value           uniform 0.003;
    }
    atmosphere
    {
        type            inletOutlet;
        inletValue      uniform 0.003;
        value           uniform 0.003;
    }
    "baffle.*"
    {
        type            omegaWallFunction;
        value           uniform 0.003;
    }
}


// ************************************************************************* //
