/*--------------------------------*- C++ -*----------------------------------*\
  =========                 |
  \\      /  F ield         | OpenFOAM: The Open Source CFD Toolbox
   \\    /   O peration     | Website:  https://openfoam.org
    \\  /    A nd           | Version:  7
     \\/     M anipulation  |
\*---------------------------------------------------------------------------*/
FoamFile
{
    version     2.0;
    format      ascii;
    class       dictionary;
    object      createBafflesDict;
}
// * * * * * * * * * * * * * * * * * * * * * * * * * * * * * * * * * * * * * //

// Whether to convert internal faces only (so leave boundary faces intact).
// This is only relevant if your face selection type can pick up boundary
// faces.
internalFacesOnly true;

fields false;

// Baffles to create.
baffles
{
    rightLong1
    {
        //- Select faces and orientation through a searchableSurface
        type        searchableSurface;
        surface     searchablePlate;
        origin      (3.375 -0.25 0);
        span        (0 0.25 0.7);
        patches
        {
            master
            {
                //- Master side patch
                name            baffle1;
                type            wall;
            }
            slave
            {
                //- Slave side patch
                ${..master}
            }
        }
    }
    rightShort1
    {
        //- Select faces and orientation through a searchableSurface
        type        searchableSurface;
        surface     searchablePlate;
        origin      (4 -0.25 0);
        span        (0 0.125 0.7);
        patches
        {
            master
            {
                //- Master side patch
                name            baffle3;
                type            wall;
            }
            slave
            {
                //- Slave side patch
                ${..master}
            }
        }
    }
    rightLong2
    {
        //- Select faces and orientation through a searchableSurface
        type        searchableSurface;
        surface     searchablePlate;
        origin      (4.625 -0.25 0);
        span        (0 0.25 0.7);
        patches
        {
            master
            {
                //- Master side patch
                name            baffle5;
                type            wall;
            }
            slave
            {
                //- Slave side patch
                ${..master}
            }
        }
    }
    rightShort2
    {
        //- Select faces and orientation through a searchableSurface
        type        searchableSurface;
        surface     searchablePlate;
        origin      (5.25 -0.25 0);
        span        (0 0.125 0.7);
        patches
        {
            master
            {
                //- Master side patch
                name            baffle7;
                type            wall;
            }
            slave
            {
                //- Slave side patch
                ${..master}
            }
        }
    }
    rightLong3
    {
        //- Select faces and orientation through a searchableSurface
        type        searchableSurface;
        surface     searchablePlate;
        origin      (5.875 -0.25 0);
        span        (0 0.25 0.7);
        patches
        {
            master
            {
                //- Master side patch
                name            baffle9;
                type            wall;
            }
            slave
            {
                //- Slave side patch
                ${..master}
            }
        }
    }
    rightShort3
    {
        //- Select faces and orientation through a searchableSurface
        type        searchableSurface;
        surface     searchablePlate;
        origin      (6.5 -0.25 0);
        span        (0 0.125 0.7);
        patches
        {
            master
            {
                //- Master side patch
                name            baffle11;
                type            wall;
            }
            slave
            {
                //- Slave side patch
                ${..master}
            }
        }
    }
    leftShort1
    {
        //- Select faces and orientation through a searchableSurface
        type        searchableSurface;
        surface     searchablePlate;
        origin      (3.625 0.125 0);
        span        (0 0.125 0.7);
        patches
        {
            master
            {
                //- Master side patch
                name            baffle2;
                type            wall;
            }
            slave
            {
                //- Slave side patch
                ${..master}
            }
        }
    }
    leftLong1
    {
        //- Select faces and orientation through a searchableSurface
        type        searchableSurface;
        surface     searchablePlate;
        origin      (4.25 0 0);
        span        (0 0.25 0.7);
        patches
        {
            master
            {
                //- Master side patch
                name            baffle4;
                type            wall;
            }
            slave
            {
                //- Slave side patch
                ${..master}
            }
        }
    }
    leftShort2
    {
        //- Select faces and orientation through a searchableSurface
        type        searchableSurface;
        surface     searchablePlate;
        origin      (4.875 0.125 0);
        span        (0 0.125 0.7);
        patches
        {
            master
            {
                //- Master side patch
                name            baffle6;
                type            wall;
            }
            slave
            {
                //- Slave side patch
                ${..master}
            }
        }
    }
    leftLong2
    {
        //- Select faces and orientation through a searchableSurface
        type        searchableSurface;
        surface     searchablePlate;
        origin      (5.5 0 0);
        span        (0 0.25 0.7);
        patches
        {
            master
            {
                //- Master side patch
                name            baffle8;
                type            wall;
            }
            slave
            {
                //- Slave side patch
                ${..master}
            }
        }
    }
    leftShort3
    {
        //- Select faces and orientation through a searchableSurface
        type        searchableSurface;
        surface     searchablePlate;
        origin      (6.125 0.125 0);
        span        (0 0.125 0.7);
        patches
        {
            master
            {
                //- Master side patch
                name            baffle10;
                type            wall;
            }
            slave
            {
                //- Slave side patch
                ${..master}
            }
        }
    }
    leftLong3
    {
        //- Select faces and orientation through a searchableSurface
        type        searchableSurface;
        surface     searchablePlate;
        origin      (6.75 0 0);
        span        (0 0.25 0.7);
        patches
        {
            master
            {
                //- Master side patch
                name            baffle12;
                type            wall;
            }
            slave
            {
                //- Slave side patch
                ${..master}
            }
        }
    }
 


}


// ************************************************************************* //
